[root]
type=Root
children=system
eventq_index=0
full_system=false
sim_quantum=0
time_sync_enable=false
time_sync_period=100000000000
time_sync_spin_threshold=100000000

[system]
type=System
children=clk_domain cpu dvfs_handler interrupt_xbar mem_ctrl
byte_order=little
cache_line_size=64
eventq_index=0
exit_on_work_items=true
init_param=0
kvm_vm=Null
m5ops_base=4294901760
mem_mode=timing
mem_ranges=0:2147483648
memories=system.mem_ctrl
mmap_using_noreserve=false
multi_thread=false
num_work_ids=16
readfile=
redirect_paths=
shared_backstore=
symbolfile=
thermal_components=
thermal_model=Null
work_begin_ckpt_count=0
work_begin_cpu_id_exit=-1
work_begin_exit_count=0
work_cpus_ckpt_count=0
work_end_ckpt_count=0
work_end_exit_count=0
work_item_id=-1
workload=Null
system_port=system.mem_ctrl.port[2]

[system.clk_domain]
type=SrcClockDomain
children=voltage_domain
clock=1000
domain_id=-1
eventq_index=0
init_perf_level=0
voltage_domain=system.clk_domain.voltage_domain

[system.clk_domain.voltage_domain]
type=VoltageDomain
eventq_index=0
voltage=1.0

[system.cpu]
type=TimingSimpleCPU
children=branchPred dtb interrupts isa itb power_state tracer workload
branchPred=system.cpu.branchPred
checker=Null
clk_domain=system.clk_domain
cpu_id=-1
do_checkpoint_insts=true
do_statistics_insts=true
dtb=system.cpu.dtb
eventq_index=0
function_trace=false
function_trace_start=0
interrupts=system.cpu.interrupts
isa=system.cpu.isa
itb=system.cpu.itb
max_insts_all_threads=0
max_insts_any_thread=0
numThreads=1
power_gating_on_idle=false
power_model=
power_state=system.cpu.power_state
progress_interval=0
pwr_gating_latency=300
simpoint_start_insts=
socket_id=0
switched_out=false
syscallRetryLatency=10000
system=system
tracer=system.cpu.tracer
wait_for_remote_gdb=false
workload=system.cpu.workload
dcache_port=system.mem_ctrl.port[1]
icache_port=system.mem_ctrl.port[0]

[system.cpu.branchPred]
type=PerceptronBP
children=indirectBranchPred
BTBEntries=4096
BTBTagSize=16
RASSize=16
eventq_index=0
global_history_bits=32
indirectBranchPred=system.cpu.branchPred.indirectBranchPred
instShiftAmt=2
numThreads=1
number_of_perceptrons=10
number_of_weights=10
threshold=128

[system.cpu.branchPred.indirectBranchPred]
type=SimpleIndirectPredictor
eventq_index=0
indirectGHRBits=13
indirectHashGHR=true
indirectHashTargets=true
indirectPathLength=3
indirectSets=256
indirectTagSize=16
indirectWays=2
instShiftAmt=2
numThreads=1

[system.cpu.dtb]
type=X86TLB
children=walker
eventq_index=0
size=64
system=system
walker=system.cpu.dtb.walker

[system.cpu.dtb.walker]
type=X86PagetableWalker
children=power_state
clk_domain=system.clk_domain
eventq_index=0
num_squash_per_cycle=4
power_model=
power_state=system.cpu.dtb.walker.power_state
system=system

[system.cpu.dtb.walker.power_state]
type=PowerState
clk_gate_bins=20
clk_gate_max=1000000000000
clk_gate_min=1000
default_state=UNDEFINED
eventq_index=0
leaders=
possible_states=

[system.cpu.interrupts]
type=X86LocalApic
children=clk_domain
clk_domain=system.cpu.interrupts.clk_domain
eventq_index=0
int_latency=1000
pio_latency=100000
system=system
int_requestor=system.interrupt_xbar.cpu_side_ports[0]
int_responder=system.interrupt_xbar.mem_side_ports[1]
pio=system.interrupt_xbar.mem_side_ports[0]

[system.cpu.interrupts.clk_domain]
type=DerivedClockDomain
clk_divider=16
clk_domain=system.clk_domain
eventq_index=0

[system.cpu.isa]
type=X86ISA
eventq_index=0

[system.cpu.itb]
type=X86TLB
children=walker
eventq_index=0
size=64
system=system
walker=system.cpu.itb.walker

[system.cpu.itb.walker]
type=X86PagetableWalker
children=power_state
clk_domain=system.clk_domain
eventq_index=0
num_squash_per_cycle=4
power_model=
power_state=system.cpu.itb.walker.power_state
system=system

[system.cpu.itb.walker.power_state]
type=PowerState
clk_gate_bins=20
clk_gate_max=1000000000000
clk_gate_min=1000
default_state=UNDEFINED
eventq_index=0
leaders=
possible_states=

[system.cpu.power_state]
type=PowerState
clk_gate_bins=20
clk_gate_max=1000000000000
clk_gate_min=1000
default_state=UNDEFINED
eventq_index=0
leaders=
possible_states=ON CLK_GATED OFF

[system.cpu.tracer]
type=ExeTracer
eventq_index=0

[system.cpu.workload]
type=Process
cmd=microbenchmark/CCa/bench.X86
cwd=/data/home/ama225/CMPT-450-Project
drivers=
egid=100
env=
errout=cerr
euid=100
eventq_index=0
executable=
gid=100
input=cin
kvmInSE=false
maxStackSize=67108864
output=cout
pgid=100
pid=100
ppid=0
release=5.1.0
simpoint=0
system=system
uid=100
useArchPT=false

[system.dvfs_handler]
type=DVFSHandler
domains=
enable=false
eventq_index=0
sys_clk_domain=system.clk_domain
transition_latency=100000000

[system.interrupt_xbar]
type=CoherentXBar
children=power_state snoop_filter
clk_domain=system.clk_domain
eventq_index=0
forward_latency=4
frontend_latency=3
header_latency=1
max_outstanding_snoops=512
max_routing_table_size=512
point_of_coherency=true
point_of_unification=true
power_model=
power_state=system.interrupt_xbar.power_state
response_latency=2
snoop_filter=system.interrupt_xbar.snoop_filter
snoop_response_latency=4
system=system
use_default_range=false
width=16
cpu_side_ports=system.cpu.interrupts.int_requestor
mem_side_ports=system.cpu.interrupts.pio system.cpu.interrupts.int_responder

[system.interrupt_xbar.power_state]
type=PowerState
clk_gate_bins=20
clk_gate_max=1000000000000
clk_gate_min=1000
default_state=UNDEFINED
eventq_index=0
leaders=
possible_states=

[system.interrupt_xbar.snoop_filter]
type=SnoopFilter
eventq_index=0
lookup_latency=1
max_capacity=8388608
system=system

[system.mem_ctrl]
type=SimpleMemory
children=power_state
bandwidth=0.000000
clk_domain=system.clk_domain
conf_table_reported=true
eventq_index=0
image_file=
in_addr_map=true
kvm_map=true
latency=0
latency_var=0
null=false
power_model=
power_state=system.mem_ctrl.power_state
range=0:2147483648
port=system.cpu.icache_port system.cpu.dcache_port system.system_port

[system.mem_ctrl.power_state]
type=PowerState
clk_gate_bins=20
clk_gate_max=1000000000000
clk_gate_min=1000
default_state=UNDEFINED
eventq_index=0
leaders=
possible_states=

